
**** 12/01/23 22:46:17 *** PSpice 23.1.0 (29 September 2023) ** ID# 0 ********

 ** Profile: "SCHEMATIC1-S"  [ C:\JEONGHYUN\GIT\RFSOC_FRONTEND\RFMC_FRONTEND\RFMC_FRONTEND_V1_00-PSpiceFiles\SCHEMATIC1\S.sim ] 


 ****     CIRCUIT DESCRIPTION


******************************************************************************




** Creating circuit file "S.cir" 
** WARNING: THIS AUTOMATICALLY GENERATED FILE MAY BE OVERWRITTEN BY SUBSEQUENT SIMULATIONS

*Libraries: 
* Profile Libraries :
* Local Libraries :
* From [PSPICE NETLIST] section of C:\SPB_DATA\cdssetup\OrCAD_PSpice\23.1.0\PSpice.ini file:
.lib "nom.lib" 

*Analysis directives: 
.AC DEC 200 0 2000
------------$
ERROR(ORPSIM-16103): Invalid value
.OPTIONS ADVCONV
.PROBE64 V(alias(*)) I(alias(*)) W(alias(*)) D(alias(*)) NOISE(alias(*)) 
.INC "..\SCHEMATIC1.net" 



**** INCLUDING SCHEMATIC1.net ****
* source RFMC_FRONTEND_V1_00
R_R1         N00387 N00220  106.07 TC=0,0 
R_R2         N00354 N00172  106.07 TC=0,0 
R_R3         N00172 N00220  157.68 TC=0,0 
R_R4         N00354 N00387  157.68 TC=0,0 

**** RESUMING S.cir ****
.END
