Circuit: * C:\Jeonghyun\GIT\RFSoC_FrontEnd\Simulation\Circuit_c_2GHz.asc

Number of points per decade reduced from 400000 to 24944.
WARNING: Node N015 is floating.
WARNING: Node N008 is floating.

Direct Newton iteration for .op point succeeded.

Date: Sat Dec  2 16:37:43 2023
Total elapsed time: 0.793 seconds.

tnom = 27
temp = 27
method = trap
totiter = 3
traniter = 0
tranpoints = 0
accept = 0
rejected = 0
matrix size = 20
fillins = 14
solver = Normal
Avg thread counts: 20.0/0.0/20.0/1.0
Matrix Compiler1:     103 opcodes
Matrix Compiler2: 1.76 KB object code size
