Circuit: * C:\Jeonghyun\GIT\RFSoC_FrontEnd\Simulation\Circuit.asc

Number of points per decade reduced from 400000 to 24944.
Direct Newton iteration for .op point succeeded.

Date: Sat Dec  2 16:10:18 2023
Total elapsed time: 0.680 seconds.

tnom = 27
temp = 27
method = trap
totiter = 3
traniter = 0
tranpoints = 0
accept = 0
rejected = 0
matrix size = 16
fillins = 5
solver = Normal
Avg thread counts: 20.0/0.0/20.0/1.0
Matrix Compiler1:      71 opcodes
Matrix Compiler2: 1.32 KB object code size
