Circuit: * C:\Jeonghyun\GIT\RFSoC_FrontEnd\Simulation\Draft1.asc

Direct Newton iteration for .op point succeeded.

Date: Sat Dec 30 14:06:23 2023
Total elapsed time: 0.067 seconds.

tnom = 27
temp = 27
method = modified trap
totiter = 2506
traniter = 2498
tranpoints = 1206
accept = 1173
rejected = 33
matrix size = 8
fillins = 0
solver = Normal
Avg thread counts: 1.7/2.4/2.5/1.7
Matrix Compiler1: 300 bytes object code size  0.2/0.2/[0.1]
Matrix Compiler2: 456 bytes object code size  0.1/0.3/[0.1]

