Circuit: * C:\Jeonghyun\GIT\RFSoC_FrontEnd\Simulation\O_PAD.asc

Direct Newton iteration for .op point succeeded.

Date: Sat Dec  2 16:05:53 2023
Total elapsed time: 0.092 seconds.

tnom = 27
temp = 27
method = trap
totiter = 3
traniter = 0
tranpoints = 0
accept = 0
rejected = 0
matrix size = 8
fillins = 0
solver = Normal
Avg thread counts: 20.0/0.0/20.0/1.1
Matrix Compiler1:      27 opcodes
Matrix Compiler2: 596 bytes object code size
