Circuit: * C:\Jeonghyun\GIT\RFSoC_FrontEnd\Simulation\PI_PAD.asc

Direct Newton iteration for .op point succeeded.

Date: Sat Dec  2 15:57:37 2023
Total elapsed time: 0.075 seconds.

tnom = 27
temp = 27
method = trap
totiter = 3
traniter = 0
tranpoints = 0
accept = 0
rejected = 0
matrix size = 3
fillins = 0
solver = Normal
Avg thread counts: 20.0/0.0/20.0/1.1
Matrix Compiler1:       6 opcodes
Matrix Compiler2: 189 bytes object code size
